GW 10 纪要：这是官方版本的元数据，非黑格尔本人著作。

GW 10,1 和 GW 10,2 统称为《纽伦堡文理中学校课程与演讲（1808-1816）》。

官方页面指出，第10卷第1分册收录了黑格尔在纽伦堡文理中学任教期间的所有讲授内容，包括学年结束演讲以及为其前任庆典所作的演说。

官方描述强调，这些纽伦堡材料对于《逻辑科学》与《 encyclopedia》的生成具有启示意义，且长期以来在研究中被忽视。

官方来源：https://www.pe.ruhr-uni-bochum.de/philosophie/i/hegel_edition/works/works.html.de
