GW 14,2 是《法哲学纲要》附录。官方说明称其收录黑格尔对古斯塔夫·雨果批评评述的回复文，片段《世袭的既定王位继承》和《什么是法》，以及最重要的黑格尔亲自手写的藏书中《法哲学纲要》第1至180节的笔记。版中注明，原稿扫描件与这些笔记相对展示，显现黑格尔在法哲学上的进一步工作及其为后续讲授所作的准备。

GW 14,3 是《法哲学纲要》附录，包含整个三卷本的编辑说明与上下文注释基础。
