GW 26 是有关法哲学的批判讲授文稿集。这是官方版的元数据，而非黑格尔本人写作。
官方页面指出，GW 26,2 记录了《基本纲要》出版之后 1821/22 与 1822/23 两届课程，说明黑格尔以印刷的小册子为依据讲授，同时大量依赖 GW 14,2 中的手写笔记，并常常超出其内容。
GW 26,3 记载了 1824/25 年最后一次完整课程以及 1831/32 年计划中的法哲学讲授仅存的少数课次。
GW 26,4 是附录册。
