GW 10 metadata. This is official edition metadata, not Hegel's own prose.
GW 10,1 and GW 10,2 are "Nuernberger Gymnasialkurse und Gymnasialreden (1808-1816)".
The official page says Band 10,1 unites all texts from Hegel's teaching activity at the Nuremberg Gymnasium, including speeches held at the end of the school year and for the jubilee of his predecessor.
The official description stresses that these Nuremberg materials illuminate the genesis of the Wissenschaft der Logik and the Encyclopaedia and that they had long been neglected in research.
Official source: https://www.pe.ruhr-uni-bochum.de/philosophie/i/hegel_edition/works/works.html.de