GW 14.2 and 14.3 metadata. This is official edition metadata, not Hegel's own prose.
GW 14,2 is "Grundlinien der Philosophie des Rechts. Beilagen". The official page says it contains Hegel's reply to Gustav Hugo's critical review, the fragments "Die erbliche festbestimmte Thronfolge" and "Was Recht ist", and above all Hegel's handwritten notes in his personal copy for sections 1 to 180 of the Grundlinien.
The edition states that scans of the original are set opposite these notes and that they reveal Hegel's further work on the philosophy of right and his preparation for later lectures.
GW 14,3 is "Grundlinien der Philosophie des Rechts. Anhang" and contains the editorial report and contextual annotation base for the whole three-part edition.
Official source: https://www.pe.ruhr-uni-bochum.de/philosophie/i/hegel_edition/works/works.html.de