GW 26 metadata. This is official edition metadata, not Hegel's own prose.
GW 26 is the critical lecture corpus on the philosophy of right.
The official page says GW 26,2 documents the courses of 1821/22 and 1822/23 after the publication of the Grundlinien and states that Hegel lectured on the basis of the printed compendium while relying heavily on his handwritten notes in GW 14,2 and often going beyond them.
GW 26,3 documents the final complete course of 1824/25 and the few surviving hours of the planned 1831/32 right lectures.
GW 26,4 is the appendix volume.
Official source: https://www.pe.ruhr-uni-bochum.de/philosophie/i/hegel_edition/works/works.html.de